*HEADING
Test 3: P-Delta pinned-pinned column (linear vs NLGEOM)
** Geometry: L=1.0 m, rectangular section 0.01 m x 0.1 m
** Material: E=210e9 Pa, nu=0.3
** Pcr = pi^2*E*I/L^2 ~= 1.73e6 N
** Use P = 0.2*Pcr ~= 3.5e5 N, lateral H = 1000 N
*NODE
1, 0.0, 0.0, 0.0
2, 0.1, 0.0, 0.0
3, 0.2, 0.0, 0.0
4, 0.3, 0.0, 0.0
5, 0.4, 0.0, 0.0
6, 0.5, 0.0, 0.0
7, 0.6, 0.0, 0.0
8, 0.7, 0.0, 0.0
9, 0.8, 0.0, 0.0
10, 0.9, 0.0, 0.0
11, 1.0, 0.0, 0.0
**
*ELEMENT, TYPE=B31, ELSET=beam
1, 1, 2
2, 2, 3
3, 3, 4
4, 4, 5
5, 5, 6
6, 6, 7
7, 7, 8
8, 8, 9
9, 9, 10
10, 10, 11
**
*NSET, NSET=left
1
*NSET, NSET=right
11
*NSET, NSET=mid
6
**
*MATERIAL, NAME=steel
*ELASTIC
210e9, 0.3
**
*BEAM SECTION, ELSET=beam, MATERIAL=steel, SECTION=RECT
0.01, 0.1
0.0, 0.0, 1.0
**
*BOUNDARY
left, 1, 3
right, 2, 3
**
*STEP
*STATIC
** Axial compression and small lateral load
*CLOAD
right, 1, -3.5e5
mid, 3, -1000.0
**
*NODE PRINT, NSET=mid
U
*END STEP
**
*STEP, NLGEOM
*STATIC
1.0e-2, 1.0, 1.0e-5, 1.0e-2
** Same loads, NLGEOM on
*CLOAD, OP=NEW
right, 1, -3.5e5
mid, 3, -1000.0
**
*NODE PRINT, NSET=mid
U
*END STEP
